%chk=GaussInput-1.chk
# HF/6-31G(d) Pop=CHelpG

GaussInput Charge Analysis

0 1
B       23.225   3.206  20.511
F       23.625   3.925  19.395
F       24.205   3.225  21.495
F        22.02   3.778  21.004
F       22.964    1.92  20.155
C       20.863     1.8  18.079
H         21.7   2.462  18.175
C       19.627   1.952  18.644
H       19.495   2.677  19.423
C       18.599    1.05   18.18
H       17.661   1.231  18.671
C         18.8   0.177  17.117
H        18.05  -0.412  16.629
C       20.084   0.152  16.628
H       20.313  -0.587  15.886
N       21.018   0.896  17.113
C       22.366   0.592  16.538
H       22.282   0.132  15.564
H       22.894   1.503  16.302
C       23.163  -0.431  17.315
H       23.182  -0.201  18.378
H       24.192   -0.45  16.964
C       22.648  -1.816  17.157
H       21.621  -1.919  17.498
H        22.62  -1.925  16.076
C       23.538  -2.877   17.64
H       23.232   -3.86  17.302
H       24.598  -2.745  17.456
H       23.563  -2.864  18.723



