%chk=check_GaussInput_SYS_ALL.chk
# HF/6-31G(d) Pop=CHelpG 

GaussInput_SYS_ALL Charge Analysis

0 1
C    30.876  30.301  17.137
H    31.853   30.62  17.444
C    30.159  29.518  17.982
H     30.51  29.312  18.974
C    28.891  29.095  17.492
H    28.297  28.356  17.996
C    28.459  29.565   16.27
H    27.508  29.217  15.916
C    29.183  30.515  15.579
H    28.922  31.072  14.702
N    30.468  30.656  15.922
C    31.435    30.4   14.89
H    32.266  29.815  15.257
H    30.861  29.776  14.221
C    31.833  31.613  14.109
H    30.946  31.877   13.54
H    32.711  31.335   13.53
C    32.345  32.875   14.98
H    31.524   33.29  15.558
H    33.073  32.566  15.726
C    32.874  33.917  13.985
H    32.125  34.238   13.27
H    33.392  34.763  14.423
H    33.573  33.367  13.366
B    36.884  33.628  24.251
F    37.704  33.875  25.324
F    37.385  34.161   23.11
F    36.644  32.316  24.168
F    35.755  34.349  24.546



