%chk=GaussInput-2.chk
# HF/6-31G(d) Pop=CHelpG

GaussInput Charge Analysis

0 1
B       45.212  54.037  35.574
F       45.202  53.156  36.662
F       45.434  55.315  36.085
F       46.168  53.647  34.648
F       43.925  54.062  35.018
C       42.364  48.821  28.166
H        43.14  48.841  27.426
C       41.725  47.671  28.546
H       41.994   46.74  28.087
C        40.89  47.577  29.658
H       40.453  46.633  29.925
C       40.641  48.789  30.297
H       39.897  48.765  31.069
C       41.323  49.886  29.874
H       41.098  50.822  30.346
N       42.106  49.929  28.807
C       42.771  51.229  28.386
H       42.871  51.844  29.268
H       43.718  51.003  27.918
C       41.818  51.943  27.349
H       40.829  52.248  27.682
H       41.798  51.336  26.448
C       42.494  53.248  26.851
H       43.006   53.67  27.712
H       43.329  52.934   26.23
C       41.575  54.211  26.212
H       42.195  55.022  25.847
H        40.87  53.829  25.482
H       40.889  54.666  26.917



